data/grid_35bus.aux
// PowerWorld Auxiliary File
// 35-Bus Power System Model for Contingency Recommendation CNN

DATA (BUS, [BusNum, BusName, BusKV, BusType, Vang, Vmag])
{
  1 "Bus_01" 230.0 "Slack" 0.00 1.0500
  2 "Bus_02" 230.0 "PV" 4.51 1.0212
  3 "Bus_03" 230.0 "PQ" -2.82 1.0066
  4 "Bus_04" 230.0 "PQ" -8.13 0.9778
  5 "Bus_05" 230.0 "PV" 3.66 1.0117
  6 "Bus_06" 230.0 "PQ" -1.50 1.0001
  7 "Bus_07" 230.0 "PQ" 1.64 0.9710
  8 "Bus_08" 230.0 "PQ" -7.45 1.0116
  9 "Bus_09" 230.0 "PQ" -7.80 0.9791
  10 "Bus_10" 230.0 "PV" 0.25 1.0191
  11 "Bus_11" 230.0 "PQ" -6.51 0.9916
  12 "Bus_12" 230.0 "PQ" -8.33 1.0006
  13 "Bus_13" 230.0 "PQ" -5.60 0.9846
  14 "Bus_14" 230.0 "PQ" -0.58 0.9928
  15 "Bus_15" 230.0 "PQ" -3.83 0.9800
  16 "Bus_16" 230.0 "PQ" -9.44 0.9996
  17 "Bus_17" 230.0 "PQ" -7.95 1.0004
  18 "Bus_18" 230.0 "PV" 4.49 1.0120
  19 "Bus_19" 230.0 "PQ" -0.30 1.0183
  20 "Bus_20" 230.0 "PQ" -8.83 0.9852
  21 "Bus_21" 138.0 "PQ" -4.72 1.0042
  22 "Bus_22" 138.0 "PQ" -4.06 0.9761
  23 "Bus_23" 138.0 "PQ" 0.91 0.9717
  24 "Bus_24" 138.0 "PQ" -2.05 0.9829
  25 "Bus_25" 230.0 "PV" 0.20 1.0194
  26 "Bus_26" 138.0 "PQ" -7.78 0.9973
  27 "Bus_27" 138.0 "PQ" -0.70 1.0185
  28 "Bus_28" 138.0 "PQ" 0.74 1.0170
  29 "Bus_29" 138.0 "PQ" 1.06 0.9999
  30 "Bus_30" 138.0 "PQ" -7.65 0.9744
  31 "Bus_31" 138.0 "PQ" -6.10 0.9723
  32 "Bus_32" 230.0 "PV" -2.29 1.0217
  33 "Bus_33" 138.0 "PQ" -5.72 1.0114
  34 "Bus_34" 138.0 "PQ" -3.49 0.9840
  35 "Bus_35" 138.0 "PQ" -0.37 0.9770
}

DATA (GEN, [BusNum, GenID, GenMW, GenMVAR, GenMWMax, GenMWMin, GenMVARMax, GenMVARMin, GenStatus])
{
  1 "1" 250.00 28.73 300.0 0.0 180.0 -90.0 "Closed"
  2 "1" 253.62 64.53 300.0 0.0 180.0 -90.0 "Closed"
  5 "1" 102.52 10.37 180.0 0.0 108.0 -54.0 "Closed"
  10 "1" 141.37 34.12 180.0 0.0 108.0 -54.0 "Closed"
  18 "1" 135.93 34.56 180.0 0.0 108.0 -54.0 "Closed"
  25 "1" 94.66 16.25 180.0 0.0 108.0 -54.0 "Closed"
  32 "1" 97.30 26.53 180.0 0.0 108.0 -54.0 "Closed"
}

DATA (LOAD, [BusNum, LoadID, LoadMW, LoadMVAR, LoadStatus])
{
  3 "1" 46.16 21.51 "Closed"
  4 "1" 18.18 8.55 "Closed"
  5 "1" 31.26 11.51 "Closed"
  6 "1" 46.88 15.24 "Closed"
  7 "1" 38.61 19.83 "Closed"
  8 "1" 50.66 18.24 "Closed"
  9 "1" 43.06 15.39 "Closed"
  10 "1" 39.69 16.69 "Closed"
  11 "1" 36.38 19.43 "Closed"
  12 "1" 20.39 10.87 "Closed"
  13 "1" 46.82 21.99 "Closed"
  14 "1" 40.43 12.91 "Closed"
  15 "1" 27.46 12.29 "Closed"
  16 "1" 52.78 25.81 "Closed"
  17 "1" 18.85 8.96 "Closed"
  18 "1" 23.06 7.22 "Closed"
  19 "1" 55.41 21.78 "Closed"
  20 "1" 58.57 20.41 "Closed"
  21 "1" 24.33 7.87 "Closed"
  22 "1" 41.97 14.58 "Closed"
  23 "1" 59.80 28.04 "Closed"
  24 "1" 20.50 10.03 "Closed"
  25 "1" 36.36 12.53 "Closed"
  26 "1" 58.04 31.24 "Closed"
  27 "1" 40.54 18.07 "Closed"
  28 "1" 26.11 13.40 "Closed"
  29 "1" 31.88 9.85 "Closed"
  30 "1" 31.16 13.13 "Closed"
  31 "1" 50.15 22.98 "Closed"
  32 "1" 63.59 19.28 "Closed"
  33 "1" 27.59 11.77 "Closed"
  34 "1" 30.04 14.31 "Closed"
  35 "1" 16.84 6.72 "Closed"
}

DATA (BRANCH, [BusNum, BusNum:1, Circuit, LineR, LineX, LineC, LineStatus, RateA])
{
  1 2 "1" 0.02259 0.08431 0.01197 "Closed" 186.2
  2 3 "1" 0.02213 0.17562 0.01105 "Closed" 209.4
  3 4 "1" 0.03049 0.15716 0.02081 "Closed" 308.4
  4 5 "1" 0.02375 0.09278 0.02588 "Closed" 196.6
  5 6 "1" 0.00643 0.03958 0.02194 "Closed" 278.0
  6 7 "1" 0.01293 0.08278 0.00936 "Closed" 322.7
  7 8 "1" 0.01854 0.14301 0.00844 "Closed" 235.3
  8 9 "1" 0.00897 0.06873 0.02693 "Closed" 214.5
  9 10 "1" 0.02810 0.20168 0.01888 "Closed" 210.5
  10 11 "1" 0.00826 0.06225 0.02751 "Closed" 237.3
  11 12 "1" 0.03041 0.22919 0.02718 "Closed" 345.0
  12 13 "1" 0.02747 0.10655 0.00904 "Closed" 374.6
  13 14 "1" 0.02623 0.09287 0.00754 "Closed" 315.9
  14 15 "1" 0.00518 0.02187 0.01872 "Closed" 323.0
  15 16 "1" 0.02782 0.12544 0.02280 "Closed" 209.3
  16 17 "1" 0.01639 0.11242 0.02124 "Closed" 362.3
  17 18 "1" 0.02802 0.16971 0.00734 "Closed" 216.3
  18 19 "1" 0.01354 0.10667 0.01483 "Closed" 348.7
  19 20 "1" 0.02259 0.13772 0.01731 "Closed" 198.8
  20 21 "1" 0.03029 0.14427 0.00561 "Closed" 311.4
  21 22 "1" 0.01120 0.08659 0.02885 "Closed" 378.7
  22 23 "1" 0.01796 0.06409 0.02821 "Closed" 257.0
  23 24 "1" 0.03883 0.30431 0.02633 "Closed" 223.6
  24 25 "1" 0.01848 0.13545 0.01292 "Closed" 289.2
  25 26 "1" 0.03777 0.25047 0.01925 "Closed" 303.8
  26 27 "1" 0.03965 0.16378 0.01796 "Closed" 369.3
  27 28 "1" 0.03093 0.20525 0.02256 "Closed" 239.9
  28 29 "1" 0.01528 0.10910 0.02525 "Closed" 366.8
  29 30 "1" 0.03696 0.21443 0.01754 "Closed" 349.6
  30 31 "1" 0.02775 0.18477 0.02489 "Closed" 372.5
  31 32 "1" 0.01683 0.08735 0.00735 "Closed" 159.0
  32 33 "1" 0.02130 0.12654 0.01216 "Closed" 157.6
  33 34 "1" 0.00631 0.04542 0.01400 "Closed" 181.8
  34 35 "1" 0.02328 0.16213 0.01040 "Closed" 305.7
  35 1 "1" 0.00799 0.02981 0.01828 "Closed" 285.2
  1 7 "1" 0.02731 0.18482 0.02940 "Closed" 279.1
  1 12 "1" 0.01630 0.11540 0.01177 "Closed" 259.7
  2 9 "1" 0.00775 0.02799 0.02907 "Closed" 252.2
  3 15 "1" 0.01107 0.04652 0.01126 "Closed" 287.3
  4 18 "1" 0.03001 0.19420 0.01200 "Closed" 288.6
  5 22 "1" 0.02641 0.14230 0.01119 "Closed" 339.5
  6 25 "1" 0.00550 0.02214 0.00615 "Closed" 363.9
  8 20 "1" 0.02963 0.16692 0.00745 "Closed" 272.9
  10 28 "1" 0.02157 0.09231 0.01585 "Closed" 304.0
  11 31 "1" 0.02723 0.10085 0.01437 "Closed" 306.5
  13 27 "1" 0.02261 0.16628 0.02147 "Closed" 190.7
  14 33 "1" 0.00747 0.04774 0.00566 "Closed" 296.4
  16 35 "1" 0.03791 0.23085 0.01470 "Closed" 310.8
  17 30 "1" 0.02104 0.12529 0.02854 "Closed" 246.5
  19 26 "1" 0.03864 0.29268 0.00989 "Closed" 167.3
  21 34 "1" 0.00853 0.03054 0.00736 "Closed" 320.8
  23 32 "1" 0.00749 0.03697 0.02612 "Closed" 353.6
  24 29 "1" 0.01486 0.05993 0.02242 "Closed" 307.2
  5 14 "1" 0.03571 0.24312 0.02509 "Closed" 194.4
  9 25 "1" 0.03127 0.22299 0.02976 "Closed" 243.0
}

